#======================================================================

# CRYSTAL DATA

#----------------------------------------------------------------------

data_VESTA_phase_1


_chemical_name_common                  ''
_cell_length_a                         3.88450
_cell_length_b                         3.88450
_cell_length_c                         6.52520
_cell_angle_alpha                      90
_cell_angle_beta                       90
_cell_angle_gamma                      120
_space_group_name_H-M_alt              'P 1'
_space_group_IT_number                 1

loop_
_space_group_symop_operation_xyz
   'x, y, z'

loop_
   _atom_site_label
   _atom_site_occupancy
   _atom_site_fract_x
   _atom_site_fract_y
   _atom_site_fract_z
   _atom_site_adp_type
   _atom_site_B_iso_or_equiv
   _atom_site_type_symbol
   Li1         1.0     0.200090      0.251500      0.475080     Biso  1.000000 Li
   F1          1.0     0.326900      0.574620      0.127050     Biso  1.000000 F
   Li2         1.0     0.000000      0.000000      0.000000     Biso  1.000000 Li
   F2          1.0     0.819860      0.582050      0.646910     Biso  1.000000 F
