#======================================================================

# CRYSTAL DATA

#----------------------------------------------------------------------

data_VESTA_phase_1


_chemical_name_common                  ''
_cell_length_a                         6.00000
_cell_length_b                         6.00000
_cell_length_c                         9.79800
_cell_angle_alpha                      90
_cell_angle_beta                       90
_cell_angle_gamma                      120
_space_group_name_H-M_alt              'P6_3mc'
_space_group_IT_number                 186

loop_
_space_group_symop_operation_xyz
   'x, y, z'
   'x-y, x, z+1/4'
   '-y, x-y, z'
   '-x, -y, z+1/4'
   '-x+y, -x, z'
   'y, -x+y, z+1/4'
   '-x+y, y, z'
   '-y, -x, z'
   'x, x-y, z'
   '-x, -x+y, z+1/4'
   'x-y, -y, z+1/4'
   'y, x, z+1/4'

loop_
   _atom_site_label
   _atom_site_occupancy
   _atom_site_fract_x
   _atom_site_fract_y
   _atom_site_fract_z
   _atom_site_adp_type
   _atom_site_B_iso_or_equiv
   _atom_site_type_symbol
   Li         1.0     0.166667      0.333333      0.187500     Biso  1.000000 Li
   Li         1.0     0.166667      0.333333      0.687500     Biso  1.000000 Li
   Li         1.0     0.166667      0.833333      0.187500     Biso  1.000000 Li
   Li         1.0     0.166667      0.833333      0.687500     Biso  1.000000 Li
   Li         1.0     0.666667      0.333333      0.187500     Biso  1.000000 Li
   Li         1.0     0.666667      0.333333      0.687500     Biso  1.000000 Li
   Li         1.0     0.666667      0.833333      0.187500     Biso  1.000000 Li
   Li         1.0     0.666667      0.833333      0.687500     Biso  1.000000 Li
   F          1.0     0.166667      0.333333      0.000000     Biso  1.000000 F
   F          1.0     0.166667      0.333333      0.500000     Biso  1.000000 F
   F          1.0     0.166667      0.833333      0.000000     Biso  1.000000 F
   F          1.0     0.166667      0.833333      0.500000     Biso  1.000000 F
   F          1.0     0.666667      0.333333      0.000000     Biso  1.000000 F
   F          1.0     0.666667      0.333333      0.500000     Biso  1.000000 F
   F          1.0     0.666667      0.833333      0.000000     Biso  1.000000 F
   F          1.0     0.666667      0.833333      0.500000     Biso  1.000000 F
