#======================================================================

# CRYSTAL DATA

#----------------------------------------------------------------------

data_VESTA_phase_1


_chemical_name_common                  ''
_cell_length_a                         6.36032
_cell_length_b                         6.36032
_cell_length_c                         9.85574
_cell_angle_alpha                      90
_cell_angle_beta                       90
_cell_angle_gamma                      120
_space_group_name_H-M_alt              'P6_3mc'
_space_group_IT_number                 186

loop_
_space_group_symop_operation_xyz
   'x, y, z'
   'x-y, x, z+1/4'
   '-y, x-y, z'
   '-x, -y, z+1/4'
   '-x+y, -x, z'
   'y, -x+y, z+1/4'
   '-x+y, y, z'
   '-y, -x, z'
   'x, x-y, z'
   '-x, -x+y, z+1/4'
   'x-y, -y, z+1/4'
   'y, x, z+1/4'
   'x, y, z+1/2'
   'x-y, x, z+3/4'
   '-y, x-y, z+1/2'
   '-x, -y, z+3/4'
   '-x+y, -x, z+1/2'
   'y, -x+y, z+3/4'
   '-x+y, y, z+1/2'
   '-y, -x, z+1/2'
   'x, x-y, z+1/2'
   '-x, -x+y, z+3/4'
   'x-y, -y, z+3/4'
   'y, x, z+3/4'
   'x, y+1/2, z'
   'x-y+1/2, x, z+1/4'
   '-y+1/2, x-y+1/2, z'
   '-x, -y+1/2, z+1/4'
   '-x+y+1/2, -x, z'
   'y+1/2, -x+y+1/2, z+1/4'
   '-x+y+1/2, y+1/2, z'
   '-y+1/2, -x, z'
   'x, x-y+1/2, z'
   '-x, -x+y+1/2, z+1/4'
   'x-y+1/2, -y+1/2, z+1/4'
   'y+1/2, x, z+1/4'
   'x, y+1/2, z+1/2'
   'x-y+1/2, x, z+3/4'
   '-y+1/2, x-y+1/2, z+1/2'
   '-x, -y+1/2, z+3/4'
   '-x+y+1/2, -x, z+1/2'
   'y+1/2, -x+y+1/2, z+3/4'
   '-x+y+1/2, y+1/2, z+1/2'
   '-y+1/2, -x, z+1/2'
   'x, x-y+1/2, z+1/2'
   '-x, -x+y+1/2, z+3/4'
   'x-y+1/2, -y+1/2, z+3/4'
   'y+1/2, x, z+3/4'
   'x+1/2, y, z'
   'x-y+1/2, x+1/2, z+1/4'
   '-y, x-y+1/2, z'
   '-x+1/2, -y, z+1/4'
   '-x+y+1/2, -x+1/2, z'
   'y, -x+y+1/2, z+1/4'
   '-x+y+1/2, y, z'
   '-y, -x+1/2, z'
   'x+1/2, x-y+1/2, z'
   '-x+1/2, -x+y+1/2, z+1/4'
   'x-y+1/2, -y, z+1/4'
   'y, x+1/2, z+1/4'
   'x+1/2, y, z+1/2'
   'x-y+1/2, x+1/2, z+3/4'
   '-y, x-y+1/2, z+1/2'
   '-x+1/2, -y, z+3/4'
   '-x+y+1/2, -x+1/2, z+1/2'
   'y, -x+y+1/2, z+3/4'
   '-x+y+1/2, y, z+1/2'
   '-y, -x+1/2, z+1/2'
   'x+1/2, x-y+1/2, z+1/2'
   '-x+1/2, -x+y+1/2, z+3/4'
   'x-y+1/2, -y, z+3/4'
   'y, x+1/2, z+3/4'
   'x+1/2, y+1/2, z'
   'x-y, x+1/2, z+1/4'
   '-y+1/2, x-y, z'
   '-x+1/2, -y+1/2, z+1/4'
   '-x+y, -x+1/2, z'
   'y+1/2, -x+y, z+1/4'
   '-x+y, y+1/2, z'
   '-y+1/2, -x+1/2, z'
   'x+1/2, x-y, z'
   '-x+1/2, -x+y, z+1/4'
   'x-y, -y+1/2, z+1/4'
   'y+1/2, x+1/2, z+1/4'
   'x+1/2, y+1/2, z+1/2'
   'x-y, x+1/2, z+3/4'
   '-y+1/2, x-y, z+1/2'
   '-x+1/2, -y+1/2, z+3/4'
   '-x+y, -x+1/2, z+1/2'
   'y+1/2, -x+y, z+3/4'
   '-x+y, y+1/2, z+1/2'
   '-y+1/2, -x+1/2, z+1/2'
   'x+1/2, x-y, z+1/2'
   '-x+1/2, -x+y, z+3/4'
   'x-y, -y+1/2, z+3/4'
   'y+1/2, x+1/2, z+3/4'

loop_
   _atom_site_label
   _atom_site_occupancy
   _atom_site_fract_x
   _atom_site_fract_y
   _atom_site_fract_z
   _atom_site_adp_type
   _atom_site_B_iso_or_equiv
   _atom_site_type_symbol
   Li         1.0     0.166667      0.833333      0.996072     Biso  1.000000 Li
   F          1.0     0.166667      0.833333      0.191428     Biso  1.000000 F
