#======================================================================

# CRYSTAL DATA

#----------------------------------------------------------------------

data_VESTA_phase_1


_chemical_name_common                  ''
_cell_length_a                         6.36170251
_cell_length_b                         6.36170251
_cell_length_c                         9.84997970
_cell_angle_alpha                      90
_cell_angle_beta                       90
_cell_angle_gamma                      120
_space_group_name_H-M_alt              'P1'
_space_group_IT_number                 1

loop_
_space_group_symop_operation_xyz
   'x, y, z'

loop_
   _atom_site_label
   _atom_site_occupancy
   _atom_site_fract_x
   _atom_site_fract_y
   _atom_site_fract_z
   _atom_site_adp_type
   _atom_site_B_iso_or_equiv
   _atom_site_type_symbol
   Li         1.0      -3.333364477996E-01 -1.666682238998E-01 -4.034097208059E-03     Biso  1.000000 Li
   Li         1.0      -3.333364475564E-01 -1.666682237782E-01  4.959659035041E-01     Biso  1.000000 Li
   Li         1.0      -3.333333333333E-01  3.333333333333E-01 -3.950784306225E-03     Biso  1.000000 Li
   Li         1.0      -3.333333333333E-01  3.333333333333E-01  4.960492134974E-01     Biso  1.000000 Li
   Li         1.0      1.666682238998E-01 -1.666682238998E-01 -4.034097208059E-03     Biso  1.000000 Li
   Li         1.0      1.666682237782E-01 -1.666682237782E-01  4.959659035041E-01     Biso  1.000000 Li
   Li         1.0      1.666682238998E-01  3.333364477996E-01 -4.034097208059E-03     Biso  1.000000 Li
   Li         1.0      1.666682237782E-01  3.333364475564E-01  4.959659035041E-01     Biso  1.000000 Li
   Li         1.0      -1.666629824000E-01 -3.333259648000E-01  2.459910163368E-01     Biso  1.000000 Li
   Li         1.0      -1.666629834026E-01 -3.333259668052E-01 -2.540089829743E-01     Biso  1.000000 Li
   Li         1.0      -1.666629824000E-01  1.666629824000E-01  2.459910163368E-01     Biso  1.000000 Li
   Li         1.0      -1.666629834026E-01  1.666629834026E-01 -2.540089829743E-01     Biso  1.000000 Li
   Li         1.0      3.333333333333E-01 -3.333333333333E-01  2.459844993133E-01     Biso  1.000000 Li
   Li         1.0      3.333333333333E-01 -3.333333333333E-01 -2.540155013779E-01     Biso  1.000000 Li
   Li         1.0      3.333259648000E-01  1.666629824000E-01  2.459910163368E-01     Biso  1.000000 Li
   Li         1.0      3.333259668052E-01  1.666629834026E-01 -2.540089829743E-01     Biso  1.000000 Li
  F         1.0      -3.333357778047E-01 -1.666678889024E-01  1.915088793145E-01     Biso  1.000000 F
  F         1.0      -3.333357759539E-01 -1.666678879770E-01 -3.084911199355E-01     Biso  1.000000 F
  F         1.0      -3.333333333333E-01  3.333333333333E-01  1.915153911825E-01     Biso  1.000000 F
  F         1.0      -3.333333333333E-01  3.333333333333E-01 -3.084846099380E-01     Biso  1.000000 F
  F         1.0      1.666678889024E-01 -1.666678889024E-01  1.915088793145E-01     Biso  1.000000 F
  F         1.0      1.666678879770E-01 -1.666678879770E-01 -3.084911199355E-01     Biso  1.000000 F
  F         1.0      1.666678889024E-01  3.333357778047E-01  1.915088793145E-01     Biso  1.000000 F
  F         1.0      1.666678879770E-01  3.333357759539E-01 -3.084911199355E-01     Biso  1.000000 F
  F         1.0      -1.666675462278E-01 -3.333350924555E-01 -5.848935239343E-02     Biso  1.000000 F
  F         1.0      -1.666675459061E-01 -3.333350918122E-01  4.415106469587E-01     Biso  1.000000 F
  F         1.0      -1.666675462278E-01  1.666675462278E-01 -5.848935239343E-02     Biso  1.000000 F
  F         1.0      -1.666675459061E-01  1.666675459061E-01  4.415106469587E-01     Biso  1.000000 F
  F         1.0      3.333333333333E-01 -3.333333333333E-01 -5.847844548625E-02     Biso  1.000000 F
  F         1.0      3.333333333333E-01 -3.333333333333E-01  4.415215563063E-01     Biso  1.000000 F
  F         1.0      3.333350924555E-01  1.666675462278E-01 -5.848935239343E-02     Biso  1.000000 F
  F         1.0      3.333350918122E-01  1.666675459061E-01  4.415106469587E-01     Biso  1.000000 F

   

   
   
