#======================================================================

# CRYSTAL DATA

#----------------------------------------------------------------------

data_VESTA_phase_1


_chemical_name_common                  ''
_cell_length_a                         7.50294970
_cell_length_b                         7.50294970
_cell_length_c                         7.50294970
_cell_angle_alpha                      90
_cell_angle_beta                       90
_cell_angle_gamma                      90
_space_group_name_H-M_alt              'F m -3 m'
_space_group_IT_number                 225

loop_
_space_group_symop_operation_xyz
   'x, y, z'
   '-x, -y, -z'
   '-x, -y, z'
   'x, y, -z'
   '-x, y, -z'
   'x, -y, z'
   'x, -y, -z'
   '-x, y, z'
   'z, x, y'
   '-z, -x, -y'
   'z, -x, -y'
   '-z, x, y'
   '-z, -x, y'
   'z, x, -y'
   '-z, x, -y'
   'z, -x, y'
   'y, z, x'
   '-y, -z, -x'
   '-y, z, -x'
   'y, -z, x'
   'y, -z, -x'
   '-y, z, x'
   '-y, -z, x'
   'y, z, -x'
   'y, x, -z'
   '-y, -x, z'
   '-y, -x, -z'
   'y, x, z'
   'y, -x, z'
   '-y, x, -z'
   '-y, x, z'
   'y, -x, -z'
   'x, z, -y'
   '-x, -z, y'
   '-x, z, y'
   'x, -z, -y'
   '-x, -z, -y'
   'x, z, y'
   'x, -z, y'
   '-x, z, -y'
   'z, y, -x'
   '-z, -y, x'
   'z, -y, x'
   '-z, y, -x'
   '-z, y, x'
   'z, -y, -x'
   '-z, -y, -x'
   'z, y, x'
   'x, y+1/4, z+1/4'
   '-x, -y+1/4, -z+1/4'
   '-x, -y+1/4, z+1/4'
   'x, y+1/4, -z+1/4'
   '-x, y+1/4, -z+1/4'
   'x, -y+1/4, z+1/4'
   'x, -y+1/4, -z+1/4'
   '-x, y+1/4, z+1/4'
   'z, x+1/4, y+1/4'
   '-z, -x+1/4, -y+1/4'
   'z, -x+1/4, -y+1/4'
   '-z, x+1/4, y+1/4'
   '-z, -x+1/4, y+1/4'
   'z, x+1/4, -y+1/4'
   '-z, x+1/4, -y+1/4'
   'z, -x+1/4, y+1/4'
   'y, z+1/4, x+1/4'
   '-y, -z+1/4, -x+1/4'
   '-y, z+1/4, -x+1/4'
   'y, -z+1/4, x+1/4'
   'y, -z+1/4, -x+1/4'
   '-y, z+1/4, x+1/4'
   '-y, -z+1/4, x+1/4'
   'y, z+1/4, -x+1/4'
   'y, x+1/4, -z+1/4'
   '-y, -x+1/4, z+1/4'
   '-y, -x+1/4, -z+1/4'
   'y, x+1/4, z+1/4'
   'y, -x+1/4, z+1/4'
   '-y, x+1/4, -z+1/4'
   '-y, x+1/4, z+1/4'
   'y, -x+1/4, -z+1/4'
   'x, z+1/4, -y+1/4'
   '-x, -z+1/4, y+1/4'
   '-x, z+1/4, y+1/4'
   'x, -z+1/4, -y+1/4'
   '-x, -z+1/4, -y+1/4'
   'x, z+1/4, y+1/4'
   'x, -z+1/4, y+1/4'
   '-x, z+1/4, -y+1/4'
   'z, y+1/4, -x+1/4'
   '-z, -y+1/4, x+1/4'
   'z, -y+1/4, x+1/4'
   '-z, y+1/4, -x+1/4'
   '-z, y+1/4, x+1/4'
   'z, -y+1/4, -x+1/4'
   '-z, -y+1/4, -x+1/4'
   'z, y+1/4, x+1/4'
   'x+1/4, y, z+1/4'
   '-x+1/4, -y, -z+1/4'
   '-x+1/4, -y, z+1/4'
   'x+1/4, y, -z+1/4'
   '-x+1/4, y, -z+1/4'
   'x+1/4, -y, z+1/4'
   'x+1/4, -y, -z+1/4'
   '-x+1/4, y, z+1/4'
   'z+1/4, x, y+1/4'
   '-z+1/4, -x, -y+1/4'
   'z+1/4, -x, -y+1/4'
   '-z+1/4, x, y+1/4'
   '-z+1/4, -x, y+1/4'
   'z+1/4, x, -y+1/4'
   '-z+1/4, x, -y+1/4'
   'z+1/4, -x, y+1/4'
   'y+1/4, z, x+1/4'
   '-y+1/4, -z, -x+1/4'
   '-y+1/4, z, -x+1/4'
   'y+1/4, -z, x+1/4'
   'y+1/4, -z, -x+1/4'
   '-y+1/4, z, x+1/4'
   '-y+1/4, -z, x+1/4'
   'y+1/4, z, -x+1/4'
   'y+1/4, x, -z+1/4'
   '-y+1/4, -x, z+1/4'
   '-y+1/4, -x, -z+1/4'
   'y+1/4, x, z+1/4'
   'y+1/4, -x, z+1/4'
   '-y+1/4, x, -z+1/4'
   '-y+1/4, x, z+1/4'
   'y+1/4, -x, -z+1/4'
   'x+1/4, z, -y+1/4'
   '-x+1/4, -z, y+1/4'
   '-x+1/4, z, y+1/4'
   'x+1/4, -z, -y+1/4'
   '-x+1/4, -z, -y+1/4'
   'x+1/4, z, y+1/4'
   'x+1/4, -z, y+1/4'
   '-x+1/4, z, -y+1/4'
   'z+1/4, y, -x+1/4'
   '-z+1/4, -y, x+1/4'
   'z+1/4, -y, x+1/4'
   '-z+1/4, y, -x+1/4'
   '-z+1/4, y, x+1/4'
   'z+1/4, -y, -x+1/4'
   '-z+1/4, -y, -x+1/4'
   'z+1/4, y, x+1/4'
   'x+1/4, y+1/4, z'
   '-x+1/4, -y+1/4, -z'
   '-x+1/4, -y+1/4, z'
   'x+1/4, y+1/4, -z'
   '-x+1/4, y+1/4, -z'
   'x+1/4, -y+1/4, z'
   'x+1/4, -y+1/4, -z'
   '-x+1/4, y+1/4, z'
   'z+1/4, x+1/4, y'
   '-z+1/4, -x+1/4, -y'
   'z+1/4, -x+1/4, -y'
   '-z+1/4, x+1/4, y'
   '-z+1/4, -x+1/4, y'
   'z+1/4, x+1/4, -y'
   '-z+1/4, x+1/4, -y'
   'z+1/4, -x+1/4, y'
   'y+1/4, z+1/4, x'
   '-y+1/4, -z+1/4, -x'
   '-y+1/4, z+1/4, -x'
   'y+1/4, -z+1/4, x'
   'y+1/4, -z+1/4, -x'
   '-y+1/4, z+1/4, x'
   '-y+1/4, -z+1/4, x'
   'y+1/4, z+1/4, -x'
   'y+1/4, x+1/4, -z'
   '-y+1/4, -x+1/4, z'
   '-y+1/4, -x+1/4, -z'
   'y+1/4, x+1/4, z'
   'y+1/4, -x+1/4, z'
   '-y+1/4, x+1/4, -z'
   '-y+1/4, x+1/4, z'
   'y+1/4, -x+1/4, -z'
   'x+1/4, z+1/4, -y'
   '-x+1/4, -z+1/4, y'
   '-x+1/4, z+1/4, y'
   'x+1/4, -z+1/4, -y'
   '-x+1/4, -z+1/4, -y'
   'x+1/4, z+1/4, y'
   'x+1/4, -z+1/4, y'
   '-x+1/4, z+1/4, -y'
   'z+1/4, y+1/4, -x'
   '-z+1/4, -y+1/4, x'
   'z+1/4, -y+1/4, x'
   '-z+1/4, y+1/4, -x'
   '-z+1/4, y+1/4, x'
   'z+1/4, -y+1/4, -x'
   '-z+1/4, -y+1/4, -x'
   'z+1/4, y+1/4, x'

loop_
   _atom_site_label
   _atom_site_occupancy
   _atom_site_fract_x
   _atom_site_fract_y
   _atom_site_fract_z
   _atom_site_adp_type
   _atom_site_B_iso_or_equiv
   _atom_site_type_symbol
   LI          1.0         0.000000000000E+00       0.000000000000E+00       0.000000000000E+00     Biso  1.000000 LI
   CL          1.0         2.500000000000E-01       2.500000000000E-01       2.500000000000E-01     Biso  1.000000 CL
   LI          1.0         0.000000000000E+00      -5.000000000000E-01       0.000000000000E+00     Biso  1.000000 LI
   LI          1.0         0.000000000000E+00      -5.000000000000E-01      -5.000000000000E-01     Biso  1.000000 LI
   LI          1.0        -5.000000000000E-01       0.000000000000E+00       0.000000000000E+00     Biso  1.000000 LI
   LI          1.0        -5.000000000000E-01       0.000000000000E+00      -5.000000000000E-01     Biso  1.000000 LI
   LI          1.0        -5.000000000000E-01      -5.000000000000E-01       0.000000000000E+00     Biso  1.000000 LI
   LI          1.0        -5.000000000000E-01      -5.000000000000E-01      -5.000000000000E-01     Biso  1.000000 LI
   LI          1.0         0.000000000000E+00       0.000000000000E+00      -5.000000000000E-01     Biso  1.000000 LI
   CL          1.0         2.500000000000E-01       2.500000000000E-01      -2.500000000000E-01     Biso  1.000000 CL
   CL          1.0         2.500000000000E-01      -2.500000000000E-01       2.500000000000E-01     Biso  1.000000 CL
   CL          1.0         2.500000000000E-01      -2.500000000000E-01      -2.500000000000E-01     Biso  1.000000 CL
   CL          1.0        -2.500000000000E-01       2.500000000000E-01       2.500000000000E-01     Biso  1.000000 CL
   CL          1.0        -2.500000000000E-01       2.500000000000E-01      -2.500000000000E-01     Biso  1.000000 CL
   CL          1.0        -2.500000000000E-01      -2.500000000000E-01       2.500000000000E-01     Biso  1.000000 CL
   CL          1.0        -2.500000000000E-01      -2.500000000000E-01      -2.500000000000E-01     Biso  1.000000 CL
