
#======================================================================
# CRYSTAL DATA
#----------------------------------------------------------------------
data_VESTA_phase_1

_chemical_name_common                  'supercell generated structure. e_col ='
_cell_length_a                         8.592000
_cell_length_b                         12.963000
_cell_length_c                         7.222000
_cell_angle_alpha                      90.619995
_cell_angle_beta                       115.949997
_cell_angle_gamma                      87.669998
_cell_volume                           722.653085
_space_group_name_H-M_alt              'P 1'
_space_group_IT_number                 1

loop_
_space_group_symop_operation_xyz
   'x, y, z'

loop_
   _atom_site_label
   _atom_site_occupancy
   _atom_site_fract_x
   _atom_site_fract_y
   _atom_site_fract_z
   _atom_site_adp_type
   _atom_site_B_iso_or_equiv
   _atom_site_type_symbol
   Si1m       1.0     0.009100     0.816800     0.224900    Biso  1.000000 Si
   Si1m       1.0     0.509100     0.316800     0.224900    Biso  1.000000 Si
   Si1m       1.0     0.990900     0.183200     0.775100    Biso  1.000000 Si
   Al1m       1.0     0.490900     0.683200     0.775100    Biso  1.000000 Si
   Si1o       1.0     0.009500     0.184400     0.222500    Biso  1.000000 Al
   Al1o       1.0     0.509500     0.684400     0.222500    Biso  1.000000 Al
   Si1o       1.0     0.990500     0.815600     0.777500    Biso  1.000000 Al
   Si1o       1.0     0.490500     0.315600     0.777500    Biso  1.000000 Al
   Si2m       1.0     0.709500     0.882600     0.343300    Biso  1.000000 Si
   Al2m       1.0     0.209500     0.382600     0.343300    Biso  1.000000 Si
   Si2m       1.0     0.290500     0.117400     0.656700    Biso  1.000000 Si
   Si2m       1.0     0.790500     0.617400     0.656700    Biso  1.000000 Si
   Si2o       1.0     0.710500     0.118400     0.341300    Biso  1.000000 Si
   Si2o       1.0     0.210500     0.618400     0.341300    Biso  1.000000 Si
   Si2o       1.0     0.289500     0.881600     0.658700    Biso  1.000000 Si
   Al2o       1.0     0.789500     0.381600     0.658700    Biso  1.000000 Si
   K          1.0     0.286700     0.998500     0.140600    Biso  1.000000 K
   K          1.0     0.786700     0.498500     0.140600    Biso  1.000000 K
   K          1.0     0.713300     0.001500     0.859400    Biso  1.000000 K
   K          1.0     0.213300     0.501500     0.859400    Biso  1.000000 K
   Oa1        1.0     0.000500     0.144000     0.997700    Biso  1.000000 Ot
   Oa1        1.0     0.500500     0.644000     0.997700    Biso  1.000000 Ot
   Oa1        1.0     0.999500     0.856000     0.002300    Biso  1.000000 Ot
   Oa1        1.0     0.499500     0.356000     0.002300    Biso  1.000000 Ot
   Oa2        1.0     0.638200     0.001100     0.280900    Biso  1.000000 O
   Oa2        1.0     0.138200     0.501100     0.280900    Biso  1.000000 O
   Oa2        1.0     0.361800     0.998900     0.719100    Biso  1.000000 O
   Oa2        1.0     0.861800     0.498900     0.719100    Biso  1.000000 O
   Obm        1.0     0.827800     0.853400     0.227400    Biso  1.000000 O
   Obm        1.0     0.327800     0.353400     0.227400    Biso  1.000000 O
   Obm        1.0     0.172200     0.146600     0.772600    Biso  1.000000 O
   Obm        1.0     0.672200     0.646600     0.772600    Biso  1.000000 O
   Obo        1.0     0.825100     0.147200     0.222800    Biso  1.000000 Ot
   Obo        1.0     0.325100     0.647200     0.222800    Biso  1.000000 Ot
   Obo        1.0     0.174900     0.852800     0.777200    Biso  1.000000 Ot
   Obo        1.0     0.674900     0.352800     0.777200    Biso  1.000000 Ot
   Ocm        1.0     0.037800     0.690300     0.260200    Biso  1.000000 O
   Ocm        1.0     0.537800     0.190300     0.260200    Biso  1.000000 O
   Ocm        1.0     0.962200     0.309700     0.739800    Biso  1.000000 O
   Ocm        1.0     0.462200     0.809700     0.739800    Biso  1.000000 O
   Oco        1.0     0.036700     0.311600     0.258000    Biso  1.000000 Ot
   Oco        1.0     0.536700     0.811600     0.258000    Biso  1.000000 Ot
   Oco        1.0     0.963300     0.688400     0.742000    Biso  1.000000 Ot
   Oco        1.0     0.463300     0.188400     0.742000    Biso  1.000000 Ot
   Odm        1.0     0.179000     0.874900     0.408500    Biso  1.000000 O
   Odm        1.0     0.679000     0.374900     0.408500    Biso  1.000000 O
   Odm        1.0     0.821000     0.125100     0.591500    Biso  1.000000 O
   Odm        1.0     0.321000     0.625100     0.591500    Biso  1.000000 O
   Odo        1.0     0.181500     0.124000     0.407500    Biso  1.000000 Ot
   Odo        1.0     0.681500     0.624000     0.407500    Biso  1.000000 Ot
   Odo        1.0     0.818500     0.876000     0.592500    Biso  1.000000 Ot
   Odo        1.0     0.318500     0.376000     0.592500    Biso  1.000000 Ot
